<?xml version="1.0" encoding="UTF-8"?>
<!-- generated on Mon Dec  9 11:07:28 2019 by Eclipse SUMO netconvert Version 1.3.1
<configuration xmlns:xsi="http://www.w3.org/2001/XMLSchema-instance" xsi:noNamespaceSchemaLocation="http://sumo.dlr.de/xsd/netconvertConfiguration.xsd">

    <input>
        <node-files value="testenv.nod.xml"/>
        <edge-files value="testenv.edg.xml"/>
    </input>

    <output>
        <output-file value="testenv.net.xml"/>
    </output>

</configuration>
-->
<net version="1.3" junctionCornerDetail="5" limitTurnSpeed="5.50" xmlns:xsi="http://www.w3.org/2001/XMLSchema-instance" xsi:noNamespaceSchemaLocation="http://sumo.dlr.de/xsd/net_file.xsd">
  <!-- <location netOffset="0.00,0.00" convBoundary="0.00,0.00,50.00,50.00" origBoundary="0.00,0.00,50.00,50.00" projParameter="!"/> -->
  <location netOffset="-476579.48,-6462270.20" convBoundary="0.00,0.00,8571.51,8736.91" origBoundary="26.600418,58.300807,27.241396,58.438080" projParameter="+proj=utm +zone=35 +ellps=WGS84 +datum=WGS84 +units=m +no_defs" />
  <edge id=":2_0" function="internal">
    <lane id=":2_0_0" index="0" speed="3.90" length="2.58" shape="50.00,-1.60 50.70,-1.50 51.20,-1.20 51.50,-0.70 51.60,0.00" />
  </edge>
  <edge id="1to2" from="1" to="2" priority="-1">
    <lane id="1to2_0" index="0" speed="13.89" length="45.30" shape="4.70,-1.60 50.00,-1.60" />
  </edge>
  <edge id="1to4" from="1" to="4" priority="-1">
    <lane id="1to4_0" index="0" speed="13.89" length="48.50" shape="1.60,1.50 1.60,50.00" />
  </edge>
  <edge id="2to3" from="2" to="3" priority="-1">
    <lane id="2to3_0" index="0" speed="13.89" length="50.00" shape="51.60,0.00 51.60,50.00" />
  </edge>
  <junction id="1" type="dead_end" x="0.00" y="0.00" incLanes="" intLanes="" shape="0.00,1.50 3.20,1.50 3.37,0.67 3.57,0.38 3.87,0.17 4.24,0.04 4.70,0.00 4.70,-3.20 2.09,-2.68 1.18,-2.03 0.52,-1.11 0.13,0.06" />
  <junction id="2" type="priority" x="50.00" y="0.00" incLanes="1to2_0" intLanes=":2_0_0" shape="50.00,0.00 53.20,0.00 52.84,-1.78 52.40,-2.40 51.78,-2.84 50.98,-3.11 50.00,-3.20">
    <request index="0" response="0" foes="0" cont="0" />
  </junction>
  <junction id="3" type="dead_end" x="50.00" y="50.00" incLanes="2to3_0" intLanes="" shape="53.20,50.00 50.00,50.00" />
  <junction id="4" type="dead_end" x="0.00" y="50.00" incLanes="1to4_0" intLanes="" shape="3.20,50.00 0.00,50.00" />
  <connection from="1to2" to="2to3" fromLane="0" toLane="0" via=":2_0_0" dir="l" state="M" />
  <connection from=":2_0" to="2to3" fromLane="0" toLane="0" dir="l" state="M" />
</net>