<edges>
  <edge id="1to2" from="1" to="2" />
  <edge id="2to3" from="2" to="3" />
  <edge id="1to4" from="1" to="4" />
</edges>